
---------- Begin Simulation Statistics ----------
sim_seconds                                  1.181944                       # Number of seconds simulated
sim_ticks                                1181944383000                       # Number of ticks simulated
final_tick                               1181944383000                       # Number of ticks from beginning of simulation (restored from checkpoints and never reset)
sim_freq                                 1000000000000                       # Frequency of simulated ticks
host_inst_rate                                1098300                       # Simulator instruction rate (inst/s)
host_op_rate                                  1781037                       # Simulator op (including micro ops) rate (op/s)
host_tick_rate                             2575199473                       # Simulator tick rate (ticks/s)
host_mem_usage                                 617908                       # Number of bytes of host memory used
host_seconds                                   458.97                       # Real time elapsed on the host
sim_insts                                   504088766                       # Number of instructions simulated
sim_ops                                     817446113                       # Number of ops (including micro ops) simulated
system.voltage_domain.voltage                       1                       # Voltage in Volts
system.clk_domain.clock                          1000                       # Clock period in ticks
system.mem_ctrls.pwrStateResidencyTicks::UNDEFINED 1181944383000                       # Cumulative time (in ticks) in various power states
system.mem_ctrls.bytes_read::cpu.inst           22784                       # Number of bytes read from this memory
system.mem_ctrls.bytes_read::cpu.data        32299776                       # Number of bytes read from this memory
system.mem_ctrls.bytes_read::total           32322560                       # Number of bytes read from this memory
system.mem_ctrls.bytes_inst_read::cpu.inst        22784                       # Number of instructions bytes read from this memory
system.mem_ctrls.bytes_inst_read::total         22784                       # Number of instructions bytes read from this memory
system.mem_ctrls.bytes_written::writebacks     30855488                       # Number of bytes written to this memory
system.mem_ctrls.bytes_written::total        30855488                       # Number of bytes written to this memory
system.mem_ctrls.num_reads::cpu.inst              356                       # Number of read requests responded to by this memory
system.mem_ctrls.num_reads::cpu.data           504684                       # Number of read requests responded to by this memory
system.mem_ctrls.num_reads::total              505040                       # Number of read requests responded to by this memory
system.mem_ctrls.num_writes::writebacks        482117                       # Number of write requests responded to by this memory
system.mem_ctrls.num_writes::total             482117                       # Number of write requests responded to by this memory
system.mem_ctrls.bw_read::cpu.inst              19277                       # Total read bandwidth from this memory (bytes/s)
system.mem_ctrls.bw_read::cpu.data           27327661                       # Total read bandwidth from this memory (bytes/s)
system.mem_ctrls.bw_read::total              27346938                       # Total read bandwidth from this memory (bytes/s)
system.mem_ctrls.bw_inst_read::cpu.inst         19277                       # Instruction read bandwidth from this memory (bytes/s)
system.mem_ctrls.bw_inst_read::total            19277                       # Instruction read bandwidth from this memory (bytes/s)
system.mem_ctrls.bw_write::writebacks        26105702                       # Write bandwidth from this memory (bytes/s)
system.mem_ctrls.bw_write::total             26105702                       # Write bandwidth from this memory (bytes/s)
system.mem_ctrls.bw_total::writebacks        26105702                       # Total bandwidth to/from this memory (bytes/s)
system.mem_ctrls.bw_total::cpu.inst             19277                       # Total bandwidth to/from this memory (bytes/s)
system.mem_ctrls.bw_total::cpu.data          27327661                       # Total bandwidth to/from this memory (bytes/s)
system.mem_ctrls.bw_total::total             53452640                       # Total bandwidth to/from this memory (bytes/s)
system.pwrStateResidencyTicks::UNDEFINED 1181944383000                       # Cumulative time (in ticks) in various power states
system.cpu_voltage_domain.voltage                   1                       # Voltage in Volts
system.cpu_clk_domain.clock                       500                       # Clock period in ticks
system.cpu.dtb.walker.pwrStateResidencyTicks::UNDEFINED 1181944383000                       # Cumulative time (in ticks) in various power states
system.cpu.dtb.rdAccesses                   238245982                       # TLB accesses on read requests
system.cpu.dtb.wrAccesses                    64374659                       # TLB accesses on write requests
system.cpu.dtb.rdMisses                          5921                       # TLB misses on read requests
system.cpu.dtb.wrMisses                           999                       # TLB misses on write requests
system.cpu.apic_clk_domain.clock                 8000                       # Clock period in ticks
system.cpu.interrupts.pwrStateResidencyTicks::UNDEFINED 1181944383000                       # Cumulative time (in ticks) in various power states
system.cpu.itb.walker.pwrStateResidencyTicks::UNDEFINED 1181944383000                       # Cumulative time (in ticks) in various power states
system.cpu.itb.rdAccesses                           0                       # TLB accesses on read requests
system.cpu.itb.wrAccesses                   677335201                       # TLB accesses on write requests
system.cpu.itb.rdMisses                             0                       # TLB misses on read requests
system.cpu.itb.wrMisses                            36                       # TLB misses on write requests
system.cpu.workload.numSyscalls                     9                       # Number of system calls
system.cpu.pwrStateResidencyTicks::ON    1181944383000                       # Cumulative time (in ticks) in various power states
system.cpu.numCycles                       2363888766                       # number of cpu cycles simulated
system.cpu.numWorkItemsStarted                      0                       # number of work items this cpu started
system.cpu.numWorkItemsCompleted                    0                       # number of work items this cpu completed
system.cpu.committedInsts                   504088766                       # Number of instructions committed
system.cpu.committedOps                     817446113                       # Number of ops (including micro ops) committed
system.cpu.num_int_alu_accesses             812629994                       # Number of integer alu accesses
system.cpu.num_fp_alu_accesses                   1959                       # Number of float alu accesses
system.cpu.num_vec_alu_accesses                     0                       # Number of vector alu accesses
system.cpu.num_func_calls                     9452832                       # number of times a function call or return occured
system.cpu.num_conditional_control_insts     46565890                       # number of instructions that are conditional controls
system.cpu.num_int_insts                    812629994                       # number of integer instructions
system.cpu.num_fp_insts                          1959                       # number of float instructions
system.cpu.num_vec_insts                            0                       # number of vector instructions
system.cpu.num_int_register_reads          1822855601                       # number of times the integer registers were read
system.cpu.num_int_register_writes          705741308                       # number of times the integer registers were written
system.cpu.num_fp_register_reads                 3779                       # number of times the floating registers were read
system.cpu.num_fp_register_writes                1484                       # number of times the floating registers were written
system.cpu.num_vec_register_reads                   0                       # number of times the vector registers were read
system.cpu.num_vec_register_writes                  0                       # number of times the vector registers were written
system.cpu.num_cc_register_reads            297557775                       # number of times the CC registers were read
system.cpu.num_cc_register_writes           279904588                       # number of times the CC registers were written
system.cpu.num_mem_refs                     302620636                       # number of memory refs
system.cpu.num_load_insts                   238245978                       # Number of load instructions
system.cpu.num_store_insts                   64374658                       # Number of store instructions
system.cpu.num_idle_cycles                          0                       # Number of idle cycles
system.cpu.num_busy_cycles                 2363888766                       # Number of busy cycles
system.cpu.not_idle_fraction                        1                       # Percentage of non-idle cycles
system.cpu.idle_fraction                            0                       # Percentage of idle cycles
system.cpu.Branches                          60772146                       # Number of branches fetched
system.cpu.op_class::No_OpClass               1362109      0.17%      0.17% # Class of executed instruction
system.cpu.op_class::IntAlu                 505014358     61.78%     61.95% # Class of executed instruction
system.cpu.op_class::IntMult                        4      0.00%     61.95% # Class of executed instruction
system.cpu.op_class::IntDiv                   8448046      1.03%     62.98% # Class of executed instruction
system.cpu.op_class::FloatAdd                      10      0.00%     62.98% # Class of executed instruction
system.cpu.op_class::FloatCmp                       0      0.00%     62.98% # Class of executed instruction
system.cpu.op_class::FloatCvt                       0      0.00%     62.98% # Class of executed instruction
system.cpu.op_class::FloatMult                      0      0.00%     62.98% # Class of executed instruction
system.cpu.op_class::FloatMultAcc                   0      0.00%     62.98% # Class of executed instruction
system.cpu.op_class::FloatDiv                       0      0.00%     62.98% # Class of executed instruction
system.cpu.op_class::FloatMisc                      0      0.00%     62.98% # Class of executed instruction
system.cpu.op_class::FloatSqrt                      0      0.00%     62.98% # Class of executed instruction
system.cpu.op_class::SimdAdd                      374      0.00%     62.98% # Class of executed instruction
system.cpu.op_class::SimdAddAcc                     0      0.00%     62.98% # Class of executed instruction
system.cpu.op_class::SimdAlu                       68      0.00%     62.98% # Class of executed instruction
system.cpu.op_class::SimdCmp                        0      0.00%     62.98% # Class of executed instruction
system.cpu.op_class::SimdCvt                      108      0.00%     62.98% # Class of executed instruction
system.cpu.op_class::SimdMisc                     214      0.00%     62.98% # Class of executed instruction
system.cpu.op_class::SimdMult                       0      0.00%     62.98% # Class of executed instruction
system.cpu.op_class::SimdMultAcc                    0      0.00%     62.98% # Class of executed instruction
system.cpu.op_class::SimdShift                    186      0.00%     62.98% # Class of executed instruction
system.cpu.op_class::SimdShiftAcc                   0      0.00%     62.98% # Class of executed instruction
system.cpu.op_class::SimdSqrt                       0      0.00%     62.98% # Class of executed instruction
system.cpu.op_class::SimdFloatAdd                   0      0.00%     62.98% # Class of executed instruction
system.cpu.op_class::SimdFloatAlu                   0      0.00%     62.98% # Class of executed instruction
system.cpu.op_class::SimdFloatCmp                   0      0.00%     62.98% # Class of executed instruction
system.cpu.op_class::SimdFloatCvt                   0      0.00%     62.98% # Class of executed instruction
system.cpu.op_class::SimdFloatDiv                   0      0.00%     62.98% # Class of executed instruction
system.cpu.op_class::SimdFloatMisc                  0      0.00%     62.98% # Class of executed instruction
system.cpu.op_class::SimdFloatMult                  0      0.00%     62.98% # Class of executed instruction
system.cpu.op_class::SimdFloatMultAcc               0      0.00%     62.98% # Class of executed instruction
system.cpu.op_class::SimdFloatSqrt                  0      0.00%     62.98% # Class of executed instruction
system.cpu.op_class::MemRead                238245918     29.15%     92.12% # Class of executed instruction
system.cpu.op_class::MemWrite                64374231      7.88%    100.00% # Class of executed instruction
system.cpu.op_class::FloatMemRead                  60      0.00%    100.00% # Class of executed instruction
system.cpu.op_class::FloatMemWrite                427      0.00%    100.00% # Class of executed instruction
system.cpu.op_class::IprAccess                      0      0.00%    100.00% # Class of executed instruction
system.cpu.op_class::InstPrefetch                   0      0.00%    100.00% # Class of executed instruction
system.cpu.op_class::total                  817446113                       # Class of executed instruction
system.cpu.dcache.tags.pwrStateResidencyTicks::UNDEFINED 1181944383000                       # Cumulative time (in ticks) in various power states
system.cpu.dcache.tags.tagsinuse           511.834585                       # Cycle average of tags in use
system.cpu.dcache.tags.total_refs           302620641                       # Total number of references to valid blocks.
system.cpu.dcache.tags.sampled_refs            682346                       # Sample count of references to valid blocks.
system.cpu.dcache.tags.avg_refs            443.500278                       # Average number of references to valid blocks.
system.cpu.dcache.tags.warmup_cycle            765000                       # Cycle when the warmup percentage was hit.
system.cpu.dcache.tags.occ_blocks::cpu.data   511.834585                       # Average occupied blocks per requestor
system.cpu.dcache.tags.occ_percent::cpu.data     0.999677                       # Average percentage of cache occupancy
system.cpu.dcache.tags.occ_percent::total     0.999677                       # Average percentage of cache occupancy
system.cpu.dcache.tags.occ_task_id_blocks::1024          512                       # Occupied blocks per task id
system.cpu.dcache.tags.age_task_id_blocks_1024::0            5                       # Occupied blocks per task id
system.cpu.dcache.tags.age_task_id_blocks_1024::1           25                       # Occupied blocks per task id
system.cpu.dcache.tags.age_task_id_blocks_1024::2           52                       # Occupied blocks per task id
system.cpu.dcache.tags.age_task_id_blocks_1024::3          423                       # Occupied blocks per task id
system.cpu.dcache.tags.age_task_id_blocks_1024::4            7                       # Occupied blocks per task id
system.cpu.dcache.tags.occ_task_id_percent::1024            1                       # Percentage of cache occupancy per task id
system.cpu.dcache.tags.tag_accesses         605923628                       # Number of tag accesses
system.cpu.dcache.tags.data_accesses        605923628                       # Number of data accesses
system.cpu.dcache.pwrStateResidencyTicks::UNDEFINED 1181944383000                       # Cumulative time (in ticks) in various power states
system.cpu.dcache.ReadReq_hits::cpu.data    237630080                       # number of ReadReq hits
system.cpu.dcache.ReadReq_hits::total       237630080                       # number of ReadReq hits
system.cpu.dcache.WriteReq_hits::cpu.data     64295352                       # number of WriteReq hits
system.cpu.dcache.WriteReq_hits::total       64295352                       # number of WriteReq hits
system.cpu.dcache.demand_hits::cpu.data     301925432                       # number of demand (read+write) hits
system.cpu.dcache.demand_hits::total        301925432                       # number of demand (read+write) hits
system.cpu.dcache.overall_hits::cpu.data    301925432                       # number of overall hits
system.cpu.dcache.overall_hits::total       301925432                       # number of overall hits
system.cpu.dcache.ReadReq_misses::cpu.data       615902                       # number of ReadReq misses
system.cpu.dcache.ReadReq_misses::total        615902                       # number of ReadReq misses
system.cpu.dcache.WriteReq_misses::cpu.data        79307                       # number of WriteReq misses
system.cpu.dcache.WriteReq_misses::total        79307                       # number of WriteReq misses
system.cpu.dcache.demand_misses::cpu.data       695209                       # number of demand (read+write) misses
system.cpu.dcache.demand_misses::total         695209                       # number of demand (read+write) misses
system.cpu.dcache.overall_misses::cpu.data       695209                       # number of overall misses
system.cpu.dcache.overall_misses::total        695209                       # number of overall misses
system.cpu.dcache.ReadReq_miss_latency::cpu.data 181414035000                       # number of ReadReq miss cycles
system.cpu.dcache.ReadReq_miss_latency::total 181414035000                       # number of ReadReq miss cycles
system.cpu.dcache.WriteReq_miss_latency::cpu.data  21191704000                       # number of WriteReq miss cycles
system.cpu.dcache.WriteReq_miss_latency::total  21191704000                       # number of WriteReq miss cycles
system.cpu.dcache.demand_miss_latency::cpu.data 202605739000                       # number of demand (read+write) miss cycles
system.cpu.dcache.demand_miss_latency::total 202605739000                       # number of demand (read+write) miss cycles
system.cpu.dcache.overall_miss_latency::cpu.data 202605739000                       # number of overall miss cycles
system.cpu.dcache.overall_miss_latency::total 202605739000                       # number of overall miss cycles
system.cpu.dcache.ReadReq_accesses::cpu.data    238245982                       # number of ReadReq accesses(hits+misses)
system.cpu.dcache.ReadReq_accesses::total    238245982                       # number of ReadReq accesses(hits+misses)
system.cpu.dcache.WriteReq_accesses::cpu.data     64374659                       # number of WriteReq accesses(hits+misses)
system.cpu.dcache.WriteReq_accesses::total     64374659                       # number of WriteReq accesses(hits+misses)
system.cpu.dcache.demand_accesses::cpu.data    302620641                       # number of demand (read+write) accesses
system.cpu.dcache.demand_accesses::total    302620641                       # number of demand (read+write) accesses
system.cpu.dcache.overall_accesses::cpu.data    302620641                       # number of overall (read+write) accesses
system.cpu.dcache.overall_accesses::total    302620641                       # number of overall (read+write) accesses
system.cpu.dcache.ReadReq_miss_rate::cpu.data     0.002585                       # miss rate for ReadReq accesses
system.cpu.dcache.ReadReq_miss_rate::total     0.002585                       # miss rate for ReadReq accesses
system.cpu.dcache.WriteReq_miss_rate::cpu.data     0.001232                       # miss rate for WriteReq accesses
system.cpu.dcache.WriteReq_miss_rate::total     0.001232                       # miss rate for WriteReq accesses
system.cpu.dcache.demand_miss_rate::cpu.data     0.002297                       # miss rate for demand accesses
system.cpu.dcache.demand_miss_rate::total     0.002297                       # miss rate for demand accesses
system.cpu.dcache.overall_miss_rate::cpu.data     0.002297                       # miss rate for overall accesses
system.cpu.dcache.overall_miss_rate::total     0.002297                       # miss rate for overall accesses
system.cpu.dcache.ReadReq_avg_miss_latency::cpu.data 294550.163825                       # average ReadReq miss latency
system.cpu.dcache.ReadReq_avg_miss_latency::total 294550.163825                       # average ReadReq miss latency
system.cpu.dcache.WriteReq_avg_miss_latency::cpu.data 267211.015421                       # average WriteReq miss latency
system.cpu.dcache.WriteReq_avg_miss_latency::total 267211.015421                       # average WriteReq miss latency
system.cpu.dcache.demand_avg_miss_latency::cpu.data 291431.409835                       # average overall miss latency
system.cpu.dcache.demand_avg_miss_latency::total 291431.409835                       # average overall miss latency
system.cpu.dcache.overall_avg_miss_latency::cpu.data 291431.409835                       # average overall miss latency
system.cpu.dcache.overall_avg_miss_latency::total 291431.409835                       # average overall miss latency
system.cpu.dcache.blocked_cycles::no_mshrs            0                       # number of cycles access was blocked
system.cpu.dcache.blocked_cycles::no_targets            0                       # number of cycles access was blocked
system.cpu.dcache.blocked::no_mshrs                 0                       # number of cycles access was blocked
system.cpu.dcache.blocked::no_targets               0                       # number of cycles access was blocked
system.cpu.dcache.avg_blocked_cycles::no_mshrs          nan                       # average number of cycles each access was blocked
system.cpu.dcache.avg_blocked_cycles::no_targets          nan                       # average number of cycles each access was blocked
system.cpu.dcache.writebacks::writebacks       656841                       # number of writebacks
system.cpu.dcache.writebacks::total            656841                       # number of writebacks
system.cpu.dcache.ReadReq_mshr_misses::cpu.data       615902                       # number of ReadReq MSHR misses
system.cpu.dcache.ReadReq_mshr_misses::total       615902                       # number of ReadReq MSHR misses
system.cpu.dcache.WriteReq_mshr_misses::cpu.data        79307                       # number of WriteReq MSHR misses
system.cpu.dcache.WriteReq_mshr_misses::total        79307                       # number of WriteReq MSHR misses
system.cpu.dcache.demand_mshr_misses::cpu.data       695209                       # number of demand (read+write) MSHR misses
system.cpu.dcache.demand_mshr_misses::total       695209                       # number of demand (read+write) MSHR misses
system.cpu.dcache.overall_mshr_misses::cpu.data       695209                       # number of overall MSHR misses
system.cpu.dcache.overall_mshr_misses::total       695209                       # number of overall MSHR misses
system.cpu.dcache.ReadReq_mshr_miss_latency::cpu.data 180798133000                       # number of ReadReq MSHR miss cycles
system.cpu.dcache.ReadReq_mshr_miss_latency::total 180798133000                       # number of ReadReq MSHR miss cycles
system.cpu.dcache.WriteReq_mshr_miss_latency::cpu.data  21112397000                       # number of WriteReq MSHR miss cycles
system.cpu.dcache.WriteReq_mshr_miss_latency::total  21112397000                       # number of WriteReq MSHR miss cycles
system.cpu.dcache.demand_mshr_miss_latency::cpu.data 201910530000                       # number of demand (read+write) MSHR miss cycles
system.cpu.dcache.demand_mshr_miss_latency::total 201910530000                       # number of demand (read+write) MSHR miss cycles
system.cpu.dcache.overall_mshr_miss_latency::cpu.data 201910530000                       # number of overall MSHR miss cycles
system.cpu.dcache.overall_mshr_miss_latency::total 201910530000                       # number of overall MSHR miss cycles
system.cpu.dcache.ReadReq_mshr_miss_rate::cpu.data     0.002585                       # mshr miss rate for ReadReq accesses
system.cpu.dcache.ReadReq_mshr_miss_rate::total     0.002585                       # mshr miss rate for ReadReq accesses
system.cpu.dcache.WriteReq_mshr_miss_rate::cpu.data     0.001232                       # mshr miss rate for WriteReq accesses
system.cpu.dcache.WriteReq_mshr_miss_rate::total     0.001232                       # mshr miss rate for WriteReq accesses
system.cpu.dcache.demand_mshr_miss_rate::cpu.data     0.002297                       # mshr miss rate for demand accesses
system.cpu.dcache.demand_mshr_miss_rate::total     0.002297                       # mshr miss rate for demand accesses
system.cpu.dcache.overall_mshr_miss_rate::cpu.data     0.002297                       # mshr miss rate for overall accesses
system.cpu.dcache.overall_mshr_miss_rate::total     0.002297                       # mshr miss rate for overall accesses
system.cpu.dcache.ReadReq_avg_mshr_miss_latency::cpu.data 293550.163825                       # average ReadReq mshr miss latency
system.cpu.dcache.ReadReq_avg_mshr_miss_latency::total 293550.163825                       # average ReadReq mshr miss latency
system.cpu.dcache.WriteReq_avg_mshr_miss_latency::cpu.data 266211.015421                       # average WriteReq mshr miss latency
system.cpu.dcache.WriteReq_avg_mshr_miss_latency::total 266211.015421                       # average WriteReq mshr miss latency
system.cpu.dcache.demand_avg_mshr_miss_latency::cpu.data 290431.409835                       # average overall mshr miss latency
system.cpu.dcache.demand_avg_mshr_miss_latency::total 290431.409835                       # average overall mshr miss latency
system.cpu.dcache.overall_avg_mshr_miss_latency::cpu.data 290431.409835                       # average overall mshr miss latency
system.cpu.dcache.overall_avg_mshr_miss_latency::total 290431.409835                       # average overall mshr miss latency
system.cpu.dcache.replacements                 681834                       # number of replacements
system.cpu.dtb_walker_cache.tags.pwrStateResidencyTicks::UNDEFINED 1181944383000                       # Cumulative time (in ticks) in various power states
system.cpu.dtb_walker_cache.tags.tagsinuse            0                       # Cycle average of tags in use
system.cpu.dtb_walker_cache.tags.total_refs            0                       # Total number of references to valid blocks.
system.cpu.dtb_walker_cache.tags.sampled_refs            0                       # Sample count of references to valid blocks.
system.cpu.dtb_walker_cache.tags.avg_refs          nan                       # Average number of references to valid blocks.
system.cpu.dtb_walker_cache.tags.warmup_cycle            0                       # Cycle when the warmup percentage was hit.
system.cpu.dtb_walker_cache.tags.tag_accesses            0                       # Number of tag accesses
system.cpu.dtb_walker_cache.tags.data_accesses            0                       # Number of data accesses
system.cpu.dtb_walker_cache.pwrStateResidencyTicks::UNDEFINED 1181944383000                       # Cumulative time (in ticks) in various power states
system.cpu.dtb_walker_cache.blocked_cycles::no_mshrs            0                       # number of cycles access was blocked
system.cpu.dtb_walker_cache.blocked_cycles::no_targets            0                       # number of cycles access was blocked
system.cpu.dtb_walker_cache.blocked::no_mshrs            0                       # number of cycles access was blocked
system.cpu.dtb_walker_cache.blocked::no_targets            0                       # number of cycles access was blocked
system.cpu.dtb_walker_cache.avg_blocked_cycles::no_mshrs          nan                       # average number of cycles each access was blocked
system.cpu.dtb_walker_cache.avg_blocked_cycles::no_targets          nan                       # average number of cycles each access was blocked
system.cpu.dtb_walker_cache.replacements            0                       # number of replacements
system.cpu.icache.tags.pwrStateResidencyTicks::UNDEFINED 1181944383000                       # Cumulative time (in ticks) in various power states
system.cpu.icache.tags.tagsinuse           281.506066                       # Cycle average of tags in use
system.cpu.icache.tags.total_refs           677335201                       # Total number of references to valid blocks.
system.cpu.icache.tags.sampled_refs               356                       # Sample count of references to valid blocks.
system.cpu.icache.tags.avg_refs          1902626.969101                       # Average number of references to valid blocks.
system.cpu.icache.tags.warmup_cycle            445000                       # Cycle when the warmup percentage was hit.
system.cpu.icache.tags.occ_blocks::cpu.inst   281.506066                       # Average occupied blocks per requestor
system.cpu.icache.tags.occ_percent::cpu.inst     0.549817                       # Average percentage of cache occupancy
system.cpu.icache.tags.occ_percent::total     0.549817                       # Average percentage of cache occupancy
system.cpu.icache.tags.occ_task_id_blocks::1024          310                       # Occupied blocks per task id
system.cpu.icache.tags.age_task_id_blocks_1024::0           11                       # Occupied blocks per task id
system.cpu.icache.tags.age_task_id_blocks_1024::1           27                       # Occupied blocks per task id
system.cpu.icache.tags.age_task_id_blocks_1024::4          272                       # Occupied blocks per task id
system.cpu.icache.tags.occ_task_id_percent::1024     0.605469                       # Percentage of cache occupancy per task id
system.cpu.icache.tags.tag_accesses        1354670758                       # Number of tag accesses
system.cpu.icache.tags.data_accesses       1354670758                       # Number of data accesses
system.cpu.icache.pwrStateResidencyTicks::UNDEFINED 1181944383000                       # Cumulative time (in ticks) in various power states
system.cpu.icache.ReadReq_hits::cpu.inst    677334845                       # number of ReadReq hits
system.cpu.icache.ReadReq_hits::total       677334845                       # number of ReadReq hits
system.cpu.icache.demand_hits::cpu.inst     677334845                       # number of demand (read+write) hits
system.cpu.icache.demand_hits::total        677334845                       # number of demand (read+write) hits
system.cpu.icache.overall_hits::cpu.inst    677334845                       # number of overall hits
system.cpu.icache.overall_hits::total       677334845                       # number of overall hits
system.cpu.icache.ReadReq_misses::cpu.inst          356                       # number of ReadReq misses
system.cpu.icache.ReadReq_misses::total           356                       # number of ReadReq misses
system.cpu.icache.demand_misses::cpu.inst          356                       # number of demand (read+write) misses
system.cpu.icache.demand_misses::total            356                       # number of demand (read+write) misses
system.cpu.icache.overall_misses::cpu.inst          356                       # number of overall misses
system.cpu.icache.overall_misses::total           356                       # number of overall misses
system.cpu.icache.ReadReq_miss_latency::cpu.inst     78371000                       # number of ReadReq miss cycles
system.cpu.icache.ReadReq_miss_latency::total     78371000                       # number of ReadReq miss cycles
system.cpu.icache.demand_miss_latency::cpu.inst     78371000                       # number of demand (read+write) miss cycles
system.cpu.icache.demand_miss_latency::total     78371000                       # number of demand (read+write) miss cycles
system.cpu.icache.overall_miss_latency::cpu.inst     78371000                       # number of overall miss cycles
system.cpu.icache.overall_miss_latency::total     78371000                       # number of overall miss cycles
system.cpu.icache.ReadReq_accesses::cpu.inst    677335201                       # number of ReadReq accesses(hits+misses)
system.cpu.icache.ReadReq_accesses::total    677335201                       # number of ReadReq accesses(hits+misses)
system.cpu.icache.demand_accesses::cpu.inst    677335201                       # number of demand (read+write) accesses
system.cpu.icache.demand_accesses::total    677335201                       # number of demand (read+write) accesses
system.cpu.icache.overall_accesses::cpu.inst    677335201                       # number of overall (read+write) accesses
system.cpu.icache.overall_accesses::total    677335201                       # number of overall (read+write) accesses
system.cpu.icache.ReadReq_miss_rate::cpu.inst     0.000001                       # miss rate for ReadReq accesses
system.cpu.icache.ReadReq_miss_rate::total     0.000001                       # miss rate for ReadReq accesses
system.cpu.icache.demand_miss_rate::cpu.inst     0.000001                       # miss rate for demand accesses
system.cpu.icache.demand_miss_rate::total     0.000001                       # miss rate for demand accesses
system.cpu.icache.overall_miss_rate::cpu.inst     0.000001                       # miss rate for overall accesses
system.cpu.icache.overall_miss_rate::total     0.000001                       # miss rate for overall accesses
system.cpu.icache.ReadReq_avg_miss_latency::cpu.inst 220143.258427                       # average ReadReq miss latency
system.cpu.icache.ReadReq_avg_miss_latency::total 220143.258427                       # average ReadReq miss latency
system.cpu.icache.demand_avg_miss_latency::cpu.inst 220143.258427                       # average overall miss latency
system.cpu.icache.demand_avg_miss_latency::total 220143.258427                       # average overall miss latency
system.cpu.icache.overall_avg_miss_latency::cpu.inst 220143.258427                       # average overall miss latency
system.cpu.icache.overall_avg_miss_latency::total 220143.258427                       # average overall miss latency
system.cpu.icache.blocked_cycles::no_mshrs            0                       # number of cycles access was blocked
system.cpu.icache.blocked_cycles::no_targets            0                       # number of cycles access was blocked
system.cpu.icache.blocked::no_mshrs                 0                       # number of cycles access was blocked
system.cpu.icache.blocked::no_targets               0                       # number of cycles access was blocked
system.cpu.icache.avg_blocked_cycles::no_mshrs          nan                       # average number of cycles each access was blocked
system.cpu.icache.avg_blocked_cycles::no_targets          nan                       # average number of cycles each access was blocked
system.cpu.icache.writebacks::writebacks           46                       # number of writebacks
system.cpu.icache.writebacks::total                46                       # number of writebacks
system.cpu.icache.ReadReq_mshr_misses::cpu.inst          356                       # number of ReadReq MSHR misses
system.cpu.icache.ReadReq_mshr_misses::total          356                       # number of ReadReq MSHR misses
system.cpu.icache.demand_mshr_misses::cpu.inst          356                       # number of demand (read+write) MSHR misses
system.cpu.icache.demand_mshr_misses::total          356                       # number of demand (read+write) MSHR misses
system.cpu.icache.overall_mshr_misses::cpu.inst          356                       # number of overall MSHR misses
system.cpu.icache.overall_mshr_misses::total          356                       # number of overall MSHR misses
system.cpu.icache.ReadReq_mshr_miss_latency::cpu.inst     78015000                       # number of ReadReq MSHR miss cycles
system.cpu.icache.ReadReq_mshr_miss_latency::total     78015000                       # number of ReadReq MSHR miss cycles
system.cpu.icache.demand_mshr_miss_latency::cpu.inst     78015000                       # number of demand (read+write) MSHR miss cycles
system.cpu.icache.demand_mshr_miss_latency::total     78015000                       # number of demand (read+write) MSHR miss cycles
system.cpu.icache.overall_mshr_miss_latency::cpu.inst     78015000                       # number of overall MSHR miss cycles
system.cpu.icache.overall_mshr_miss_latency::total     78015000                       # number of overall MSHR miss cycles
system.cpu.icache.ReadReq_mshr_miss_rate::cpu.inst     0.000001                       # mshr miss rate for ReadReq accesses
system.cpu.icache.ReadReq_mshr_miss_rate::total     0.000001                       # mshr miss rate for ReadReq accesses
system.cpu.icache.demand_mshr_miss_rate::cpu.inst     0.000001                       # mshr miss rate for demand accesses
system.cpu.icache.demand_mshr_miss_rate::total     0.000001                       # mshr miss rate for demand accesses
system.cpu.icache.overall_mshr_miss_rate::cpu.inst     0.000001                       # mshr miss rate for overall accesses
system.cpu.icache.overall_mshr_miss_rate::total     0.000001                       # mshr miss rate for overall accesses
system.cpu.icache.ReadReq_avg_mshr_miss_latency::cpu.inst 219143.258427                       # average ReadReq mshr miss latency
system.cpu.icache.ReadReq_avg_mshr_miss_latency::total 219143.258427                       # average ReadReq mshr miss latency
system.cpu.icache.demand_avg_mshr_miss_latency::cpu.inst 219143.258427                       # average overall mshr miss latency
system.cpu.icache.demand_avg_mshr_miss_latency::total 219143.258427                       # average overall mshr miss latency
system.cpu.icache.overall_avg_mshr_miss_latency::cpu.inst 219143.258427                       # average overall mshr miss latency
system.cpu.icache.overall_avg_mshr_miss_latency::total 219143.258427                       # average overall mshr miss latency
system.cpu.icache.replacements                     46                       # number of replacements
system.cpu.itb_walker_cache.tags.pwrStateResidencyTicks::UNDEFINED 1181944383000                       # Cumulative time (in ticks) in various power states
system.cpu.itb_walker_cache.tags.tagsinuse            0                       # Cycle average of tags in use
system.cpu.itb_walker_cache.tags.total_refs            0                       # Total number of references to valid blocks.
system.cpu.itb_walker_cache.tags.sampled_refs            0                       # Sample count of references to valid blocks.
system.cpu.itb_walker_cache.tags.avg_refs          nan                       # Average number of references to valid blocks.
system.cpu.itb_walker_cache.tags.warmup_cycle            0                       # Cycle when the warmup percentage was hit.
system.cpu.itb_walker_cache.tags.tag_accesses            0                       # Number of tag accesses
system.cpu.itb_walker_cache.tags.data_accesses            0                       # Number of data accesses
system.cpu.itb_walker_cache.pwrStateResidencyTicks::UNDEFINED 1181944383000                       # Cumulative time (in ticks) in various power states
system.cpu.itb_walker_cache.blocked_cycles::no_mshrs            0                       # number of cycles access was blocked
system.cpu.itb_walker_cache.blocked_cycles::no_targets            0                       # number of cycles access was blocked
system.cpu.itb_walker_cache.blocked::no_mshrs            0                       # number of cycles access was blocked
system.cpu.itb_walker_cache.blocked::no_targets            0                       # number of cycles access was blocked
system.cpu.itb_walker_cache.avg_blocked_cycles::no_mshrs          nan                       # average number of cycles each access was blocked
system.cpu.itb_walker_cache.avg_blocked_cycles::no_targets          nan                       # average number of cycles each access was blocked
system.cpu.itb_walker_cache.replacements            0                       # number of replacements
system.l2.tags.pwrStateResidencyTicks::UNDEFINED 1181944383000                       # Cumulative time (in ticks) in various power states
system.l2.tags.tagsinuse                  2045.756349                       # Cycle average of tags in use
system.l2.tags.total_refs                     1377445                       # Total number of references to valid blocks.
system.l2.tags.sampled_refs                    518823                       # Sample count of references to valid blocks.
system.l2.tags.avg_refs                      2.654942                       # Average number of references to valid blocks.
system.l2.tags.warmup_cycle                    434500                       # Cycle when the warmup percentage was hit.
system.l2.tags.occ_blocks::writebacks        0.944308                       # Average occupied blocks per requestor
system.l2.tags.occ_blocks::cpu.inst          0.881964                       # Average occupied blocks per requestor
system.l2.tags.occ_blocks::cpu.data       2043.930077                       # Average occupied blocks per requestor
system.l2.tags.occ_percent::writebacks       0.000461                       # Average percentage of cache occupancy
system.l2.tags.occ_percent::cpu.inst         0.000431                       # Average percentage of cache occupancy
system.l2.tags.occ_percent::cpu.data         0.998013                       # Average percentage of cache occupancy
system.l2.tags.occ_percent::total            0.998904                       # Average percentage of cache occupancy
system.l2.tags.occ_task_id_blocks::1024          2048                       # Occupied blocks per task id
system.l2.tags.age_task_id_blocks_1024::0           21                       # Occupied blocks per task id
system.l2.tags.age_task_id_blocks_1024::1           56                       # Occupied blocks per task id
system.l2.tags.age_task_id_blocks_1024::3          449                       # Occupied blocks per task id
system.l2.tags.age_task_id_blocks_1024::4         1522                       # Occupied blocks per task id
system.l2.tags.occ_task_id_percent::1024            1                       # Percentage of cache occupancy per task id
system.l2.tags.tag_accesses                  11538383                       # Number of tag accesses
system.l2.tags.data_accesses                 11538383                       # Number of data accesses
system.l2.pwrStateResidencyTicks::UNDEFINED 1181944383000                       # Cumulative time (in ticks) in various power states
system.l2.WritebackDirty_hits::writebacks       656841                       # number of WritebackDirty hits
system.l2.WritebackDirty_hits::total           656841                       # number of WritebackDirty hits
system.l2.WritebackClean_hits::writebacks           46                       # number of WritebackClean hits
system.l2.WritebackClean_hits::total               46                       # number of WritebackClean hits
system.l2.UpgradeReq_hits::cpu.data             12863                       # number of UpgradeReq hits
system.l2.UpgradeReq_hits::total                12863                       # number of UpgradeReq hits
system.l2.ReadExReq_hits::cpu.data               3009                       # number of ReadExReq hits
system.l2.ReadExReq_hits::total                  3009                       # number of ReadExReq hits
system.l2.ReadSharedReq_hits::cpu.data         160975                       # number of ReadSharedReq hits
system.l2.ReadSharedReq_hits::total            160975                       # number of ReadSharedReq hits
system.l2.demand_hits::cpu.data                163984                       # number of demand (read+write) hits
system.l2.demand_hits::total                   163984                       # number of demand (read+write) hits
system.l2.overall_hits::cpu.data               163984                       # number of overall hits
system.l2.overall_hits::total                  163984                       # number of overall hits
system.l2.ReadExReq_misses::cpu.data            63435                       # number of ReadExReq misses
system.l2.ReadExReq_misses::total               63435                       # number of ReadExReq misses
system.l2.ReadCleanReq_misses::cpu.inst           356                       # number of ReadCleanReq misses
system.l2.ReadCleanReq_misses::total              356                       # number of ReadCleanReq misses
system.l2.ReadSharedReq_misses::cpu.data       454927                       # number of ReadSharedReq misses
system.l2.ReadSharedReq_misses::total          454927                       # number of ReadSharedReq misses
system.l2.demand_misses::cpu.inst                 356                       # number of demand (read+write) misses
system.l2.demand_misses::cpu.data              518362                       # number of demand (read+write) misses
system.l2.demand_misses::total                 518718                       # number of demand (read+write) misses
system.l2.overall_misses::cpu.inst                356                       # number of overall misses
system.l2.overall_misses::cpu.data             518362                       # number of overall misses
system.l2.overall_misses::total                518718                       # number of overall misses
system.l2.ReadExReq_miss_latency::cpu.data  20826779500                       # number of ReadExReq miss cycles
system.l2.ReadExReq_miss_latency::total   20826779500                       # number of ReadExReq miss cycles
system.l2.ReadCleanReq_miss_latency::cpu.inst     77479000                       # number of ReadCleanReq miss cycles
system.l2.ReadCleanReq_miss_latency::total     77479000                       # number of ReadCleanReq miss cycles
system.l2.ReadSharedReq_miss_latency::cpu.data 178184042000                       # number of ReadSharedReq miss cycles
system.l2.ReadSharedReq_miss_latency::total 178184042000                       # number of ReadSharedReq miss cycles
system.l2.demand_miss_latency::cpu.inst      77479000                       # number of demand (read+write) miss cycles
system.l2.demand_miss_latency::cpu.data  199010821500                       # number of demand (read+write) miss cycles
system.l2.demand_miss_latency::total     199088300500                       # number of demand (read+write) miss cycles
system.l2.overall_miss_latency::cpu.inst     77479000                       # number of overall miss cycles
system.l2.overall_miss_latency::cpu.data 199010821500                       # number of overall miss cycles
system.l2.overall_miss_latency::total    199088300500                       # number of overall miss cycles
system.l2.WritebackDirty_accesses::writebacks       656841                       # number of WritebackDirty accesses(hits+misses)
system.l2.WritebackDirty_accesses::total       656841                       # number of WritebackDirty accesses(hits+misses)
system.l2.WritebackClean_accesses::writebacks           46                       # number of WritebackClean accesses(hits+misses)
system.l2.WritebackClean_accesses::total           46                       # number of WritebackClean accesses(hits+misses)
system.l2.UpgradeReq_accesses::cpu.data         12863                       # number of UpgradeReq accesses(hits+misses)
system.l2.UpgradeReq_accesses::total            12863                       # number of UpgradeReq accesses(hits+misses)
system.l2.ReadExReq_accesses::cpu.data          66444                       # number of ReadExReq accesses(hits+misses)
system.l2.ReadExReq_accesses::total             66444                       # number of ReadExReq accesses(hits+misses)
system.l2.ReadCleanReq_accesses::cpu.inst          356                       # number of ReadCleanReq accesses(hits+misses)
system.l2.ReadCleanReq_accesses::total            356                       # number of ReadCleanReq accesses(hits+misses)
system.l2.ReadSharedReq_accesses::cpu.data       615902                       # number of ReadSharedReq accesses(hits+misses)
system.l2.ReadSharedReq_accesses::total        615902                       # number of ReadSharedReq accesses(hits+misses)
system.l2.demand_accesses::cpu.inst               356                       # number of demand (read+write) accesses
system.l2.demand_accesses::cpu.data            682346                       # number of demand (read+write) accesses
system.l2.demand_accesses::total               682702                       # number of demand (read+write) accesses
system.l2.overall_accesses::cpu.inst              356                       # number of overall (read+write) accesses
system.l2.overall_accesses::cpu.data           682346                       # number of overall (read+write) accesses
system.l2.overall_accesses::total              682702                       # number of overall (read+write) accesses
system.l2.ReadExReq_miss_rate::cpu.data      0.954714                       # miss rate for ReadExReq accesses
system.l2.ReadExReq_miss_rate::total         0.954714                       # miss rate for ReadExReq accesses
system.l2.ReadCleanReq_miss_rate::cpu.inst            1                       # miss rate for ReadCleanReq accesses
system.l2.ReadCleanReq_miss_rate::total             1                       # miss rate for ReadCleanReq accesses
system.l2.ReadSharedReq_miss_rate::cpu.data     0.738635                       # miss rate for ReadSharedReq accesses
system.l2.ReadSharedReq_miss_rate::total     0.738635                       # miss rate for ReadSharedReq accesses
system.l2.demand_miss_rate::cpu.inst                1                       # miss rate for demand accesses
system.l2.demand_miss_rate::cpu.data         0.759676                       # miss rate for demand accesses
system.l2.demand_miss_rate::total            0.759801                       # miss rate for demand accesses
system.l2.overall_miss_rate::cpu.inst               1                       # miss rate for overall accesses
system.l2.overall_miss_rate::cpu.data        0.759676                       # miss rate for overall accesses
system.l2.overall_miss_rate::total           0.759801                       # miss rate for overall accesses
system.l2.ReadExReq_avg_miss_latency::cpu.data 328316.851896                       # average ReadExReq miss latency
system.l2.ReadExReq_avg_miss_latency::total 328316.851896                       # average ReadExReq miss latency
system.l2.ReadCleanReq_avg_miss_latency::cpu.inst 217637.640449                       # average ReadCleanReq miss latency
system.l2.ReadCleanReq_avg_miss_latency::total 217637.640449                       # average ReadCleanReq miss latency
system.l2.ReadSharedReq_avg_miss_latency::cpu.data 391676.119465                       # average ReadSharedReq miss latency
system.l2.ReadSharedReq_avg_miss_latency::total 391676.119465                       # average ReadSharedReq miss latency
system.l2.demand_avg_miss_latency::cpu.inst 217637.640449                       # average overall miss latency
system.l2.demand_avg_miss_latency::cpu.data 383922.474063                       # average overall miss latency
system.l2.demand_avg_miss_latency::total 383808.351551                       # average overall miss latency
system.l2.overall_avg_miss_latency::cpu.inst 217637.640449                       # average overall miss latency
system.l2.overall_avg_miss_latency::cpu.data 383922.474063                       # average overall miss latency
system.l2.overall_avg_miss_latency::total 383808.351551                       # average overall miss latency
system.l2.blocked_cycles::no_mshrs                  0                       # number of cycles access was blocked
system.l2.blocked_cycles::no_targets                0                       # number of cycles access was blocked
system.l2.blocked::no_mshrs                         0                       # number of cycles access was blocked
system.l2.blocked::no_targets                       0                       # number of cycles access was blocked
system.l2.avg_blocked_cycles::no_mshrs            nan                       # average number of cycles each access was blocked
system.l2.avg_blocked_cycles::no_targets          nan                       # average number of cycles each access was blocked
system.l2.writebacks::writebacks               497778                       # number of writebacks
system.l2.writebacks::total                    497778                       # number of writebacks
system.l2.ReadExReq_mshr_misses::cpu.data        63435                       # number of ReadExReq MSHR misses
system.l2.ReadExReq_mshr_misses::total          63435                       # number of ReadExReq MSHR misses
system.l2.ReadCleanReq_mshr_misses::cpu.inst          356                       # number of ReadCleanReq MSHR misses
system.l2.ReadCleanReq_mshr_misses::total          356                       # number of ReadCleanReq MSHR misses
system.l2.ReadSharedReq_mshr_misses::cpu.data       454927                       # number of ReadSharedReq MSHR misses
system.l2.ReadSharedReq_mshr_misses::total       454927                       # number of ReadSharedReq MSHR misses
system.l2.demand_mshr_misses::cpu.inst            356                       # number of demand (read+write) MSHR misses
system.l2.demand_mshr_misses::cpu.data         518362                       # number of demand (read+write) MSHR misses
system.l2.demand_mshr_misses::total            518718                       # number of demand (read+write) MSHR misses
system.l2.overall_mshr_misses::cpu.inst           356                       # number of overall MSHR misses
system.l2.overall_mshr_misses::cpu.data        518362                       # number of overall MSHR misses
system.l2.overall_mshr_misses::total           518718                       # number of overall MSHR misses
system.l2.ReadExReq_mshr_miss_latency::cpu.data  20192429500                       # number of ReadExReq MSHR miss cycles
system.l2.ReadExReq_mshr_miss_latency::total  20192429500                       # number of ReadExReq MSHR miss cycles
system.l2.ReadCleanReq_mshr_miss_latency::cpu.inst     73919000                       # number of ReadCleanReq MSHR miss cycles
system.l2.ReadCleanReq_mshr_miss_latency::total     73919000                       # number of ReadCleanReq MSHR miss cycles
system.l2.ReadSharedReq_mshr_miss_latency::cpu.data 173634772000                       # number of ReadSharedReq MSHR miss cycles
system.l2.ReadSharedReq_mshr_miss_latency::total 173634772000                       # number of ReadSharedReq MSHR miss cycles
system.l2.demand_mshr_miss_latency::cpu.inst     73919000                       # number of demand (read+write) MSHR miss cycles
system.l2.demand_mshr_miss_latency::cpu.data 193827201500                       # number of demand (read+write) MSHR miss cycles
system.l2.demand_mshr_miss_latency::total 193901120500                       # number of demand (read+write) MSHR miss cycles
system.l2.overall_mshr_miss_latency::cpu.inst     73919000                       # number of overall MSHR miss cycles
system.l2.overall_mshr_miss_latency::cpu.data 193827201500                       # number of overall MSHR miss cycles
system.l2.overall_mshr_miss_latency::total 193901120500                       # number of overall MSHR miss cycles
system.l2.ReadExReq_mshr_miss_rate::cpu.data     0.954714                       # mshr miss rate for ReadExReq accesses
system.l2.ReadExReq_mshr_miss_rate::total     0.954714                       # mshr miss rate for ReadExReq accesses
system.l2.ReadCleanReq_mshr_miss_rate::cpu.inst            1                       # mshr miss rate for ReadCleanReq accesses
system.l2.ReadCleanReq_mshr_miss_rate::total            1                       # mshr miss rate for ReadCleanReq accesses
system.l2.ReadSharedReq_mshr_miss_rate::cpu.data     0.738635                       # mshr miss rate for ReadSharedReq accesses
system.l2.ReadSharedReq_mshr_miss_rate::total     0.738635                       # mshr miss rate for ReadSharedReq accesses
system.l2.demand_mshr_miss_rate::cpu.inst            1                       # mshr miss rate for demand accesses
system.l2.demand_mshr_miss_rate::cpu.data     0.759676                       # mshr miss rate for demand accesses
system.l2.demand_mshr_miss_rate::total       0.759801                       # mshr miss rate for demand accesses
system.l2.overall_mshr_miss_rate::cpu.inst            1                       # mshr miss rate for overall accesses
system.l2.overall_mshr_miss_rate::cpu.data     0.759676                       # mshr miss rate for overall accesses
system.l2.overall_mshr_miss_rate::total      0.759801                       # mshr miss rate for overall accesses
system.l2.ReadExReq_avg_mshr_miss_latency::cpu.data 318316.851896                       # average ReadExReq mshr miss latency
system.l2.ReadExReq_avg_mshr_miss_latency::total 318316.851896                       # average ReadExReq mshr miss latency
system.l2.ReadCleanReq_avg_mshr_miss_latency::cpu.inst 207637.640449                       # average ReadCleanReq mshr miss latency
system.l2.ReadCleanReq_avg_mshr_miss_latency::total 207637.640449                       # average ReadCleanReq mshr miss latency
system.l2.ReadSharedReq_avg_mshr_miss_latency::cpu.data 381676.119465                       # average ReadSharedReq mshr miss latency
system.l2.ReadSharedReq_avg_mshr_miss_latency::total 381676.119465                       # average ReadSharedReq mshr miss latency
system.l2.demand_avg_mshr_miss_latency::cpu.inst 207637.640449                       # average overall mshr miss latency
system.l2.demand_avg_mshr_miss_latency::cpu.data 373922.474063                       # average overall mshr miss latency
system.l2.demand_avg_mshr_miss_latency::total 373808.351551                       # average overall mshr miss latency
system.l2.overall_avg_mshr_miss_latency::cpu.inst 207637.640449                       # average overall mshr miss latency
system.l2.overall_avg_mshr_miss_latency::cpu.data 373922.474063                       # average overall mshr miss latency
system.l2.overall_avg_mshr_miss_latency::total 373808.351551                       # average overall mshr miss latency
system.l2.replacements                         516775                       # number of replacements
system.l3.tags.pwrStateResidencyTicks::UNDEFINED 1181944383000                       # Cumulative time (in ticks) in various power states
system.l3.tags.tagsinuse                  2045.830413                       # Cycle average of tags in use
system.l3.tags.total_refs                     1016561                       # Total number of references to valid blocks.
system.l3.tags.sampled_refs                    991659                       # Sample count of references to valid blocks.
system.l3.tags.avg_refs                      1.025111                       # Average number of references to valid blocks.
system.l3.tags.warmup_cycle                    418000                       # Cycle when the warmup percentage was hit.
system.l3.tags.occ_blocks::writebacks      350.121353                       # Average occupied blocks per requestor
system.l3.tags.occ_blocks::cpu.inst         64.612606                       # Average occupied blocks per requestor
system.l3.tags.occ_blocks::cpu.data       1631.096454                       # Average occupied blocks per requestor
system.l3.tags.occ_percent::writebacks       0.170958                       # Average percentage of cache occupancy
system.l3.tags.occ_percent::cpu.inst         0.031549                       # Average percentage of cache occupancy
system.l3.tags.occ_percent::cpu.data         0.796434                       # Average percentage of cache occupancy
system.l3.tags.occ_percent::total            0.998941                       # Average percentage of cache occupancy
system.l3.tags.occ_task_id_blocks::1024          2048                       # Occupied blocks per task id
system.l3.tags.age_task_id_blocks_1024::0           15                       # Occupied blocks per task id
system.l3.tags.age_task_id_blocks_1024::1           36                       # Occupied blocks per task id
system.l3.tags.age_task_id_blocks_1024::3           77                       # Occupied blocks per task id
system.l3.tags.age_task_id_blocks_1024::4         1920                       # Occupied blocks per task id
system.l3.tags.occ_task_id_percent::1024            1                       # Percentage of cache occupancy per task id
system.l3.tags.tag_accesses                  17553515                       # Number of tag accesses
system.l3.tags.data_accesses                 17553515                       # Number of data accesses
system.l3.pwrStateResidencyTicks::UNDEFINED 1181944383000                       # Cumulative time (in ticks) in various power states
system.l3.WritebackDirty_hits::writebacks       497778                       # number of WritebackDirty hits
system.l3.WritebackDirty_hits::total           497778                       # number of WritebackDirty hits
system.l3.ReadExReq_hits::cpu.data                 96                       # number of ReadExReq hits
system.l3.ReadExReq_hits::total                    96                       # number of ReadExReq hits
system.l3.ReadSharedReq_hits::cpu.data          13582                       # number of ReadSharedReq hits
system.l3.ReadSharedReq_hits::total             13582                       # number of ReadSharedReq hits
system.l3.demand_hits::cpu.data                 13678                       # number of demand (read+write) hits
system.l3.demand_hits::total                    13678                       # number of demand (read+write) hits
system.l3.overall_hits::cpu.data                13678                       # number of overall hits
system.l3.overall_hits::total                   13678                       # number of overall hits
system.l3.ReadExReq_misses::cpu.data            63339                       # number of ReadExReq misses
system.l3.ReadExReq_misses::total               63339                       # number of ReadExReq misses
system.l3.ReadSharedReq_misses::cpu.inst          356                       # number of ReadSharedReq misses
system.l3.ReadSharedReq_misses::cpu.data       441345                       # number of ReadSharedReq misses
system.l3.ReadSharedReq_misses::total          441701                       # number of ReadSharedReq misses
system.l3.demand_misses::cpu.inst                 356                       # number of demand (read+write) misses
system.l3.demand_misses::cpu.data              504684                       # number of demand (read+write) misses
system.l3.demand_misses::total                 505040                       # number of demand (read+write) misses
system.l3.overall_misses::cpu.inst                356                       # number of overall misses
system.l3.overall_misses::cpu.data             504684                       # number of overall misses
system.l3.overall_misses::total                505040                       # number of overall misses
system.l3.ReadExReq_miss_latency::cpu.data  19493060500                       # number of ReadExReq miss cycles
system.l3.ReadExReq_miss_latency::total   19493060500                       # number of ReadExReq miss cycles
system.l3.ReadSharedReq_miss_latency::cpu.inst     70003000                       # number of ReadSharedReq miss cycles
system.l3.ReadSharedReq_miss_latency::cpu.data 168406472000                       # number of ReadSharedReq miss cycles
system.l3.ReadSharedReq_miss_latency::total 168476475000                       # number of ReadSharedReq miss cycles
system.l3.demand_miss_latency::cpu.inst      70003000                       # number of demand (read+write) miss cycles
system.l3.demand_miss_latency::cpu.data  187899532500                       # number of demand (read+write) miss cycles
system.l3.demand_miss_latency::total     187969535500                       # number of demand (read+write) miss cycles
system.l3.overall_miss_latency::cpu.inst     70003000                       # number of overall miss cycles
system.l3.overall_miss_latency::cpu.data 187899532500                       # number of overall miss cycles
system.l3.overall_miss_latency::total    187969535500                       # number of overall miss cycles
system.l3.WritebackDirty_accesses::writebacks       497778                       # number of WritebackDirty accesses(hits+misses)
system.l3.WritebackDirty_accesses::total       497778                       # number of WritebackDirty accesses(hits+misses)
system.l3.ReadExReq_accesses::cpu.data          63435                       # number of ReadExReq accesses(hits+misses)
system.l3.ReadExReq_accesses::total             63435                       # number of ReadExReq accesses(hits+misses)
system.l3.ReadSharedReq_accesses::cpu.inst          356                       # number of ReadSharedReq accesses(hits+misses)
system.l3.ReadSharedReq_accesses::cpu.data       454927                       # number of ReadSharedReq accesses(hits+misses)
system.l3.ReadSharedReq_accesses::total        455283                       # number of ReadSharedReq accesses(hits+misses)
system.l3.demand_accesses::cpu.inst               356                       # number of demand (read+write) accesses
system.l3.demand_accesses::cpu.data            518362                       # number of demand (read+write) accesses
system.l3.demand_accesses::total               518718                       # number of demand (read+write) accesses
system.l3.overall_accesses::cpu.inst              356                       # number of overall (read+write) accesses
system.l3.overall_accesses::cpu.data           518362                       # number of overall (read+write) accesses
system.l3.overall_accesses::total              518718                       # number of overall (read+write) accesses
system.l3.ReadExReq_miss_rate::cpu.data      0.998487                       # miss rate for ReadExReq accesses
system.l3.ReadExReq_miss_rate::total         0.998487                       # miss rate for ReadExReq accesses
system.l3.ReadSharedReq_miss_rate::cpu.inst            1                       # miss rate for ReadSharedReq accesses
system.l3.ReadSharedReq_miss_rate::cpu.data     0.970145                       # miss rate for ReadSharedReq accesses
system.l3.ReadSharedReq_miss_rate::total     0.970168                       # miss rate for ReadSharedReq accesses
system.l3.demand_miss_rate::cpu.inst                1                       # miss rate for demand accesses
system.l3.demand_miss_rate::cpu.data         0.973613                       # miss rate for demand accesses
system.l3.demand_miss_rate::total            0.973631                       # miss rate for demand accesses
system.l3.overall_miss_rate::cpu.inst               1                       # miss rate for overall accesses
system.l3.overall_miss_rate::cpu.data        0.973613                       # miss rate for overall accesses
system.l3.overall_miss_rate::total           0.973631                       # miss rate for overall accesses
system.l3.ReadExReq_avg_miss_latency::cpu.data 307757.629581                       # average ReadExReq miss latency
system.l3.ReadExReq_avg_miss_latency::total 307757.629581                       # average ReadExReq miss latency
system.l3.ReadSharedReq_avg_miss_latency::cpu.inst 196637.640449                       # average ReadSharedReq miss latency
system.l3.ReadSharedReq_avg_miss_latency::cpu.data 381575.574664                       # average ReadSharedReq miss latency
system.l3.ReadSharedReq_avg_miss_latency::total 381426.519297                       # average ReadSharedReq miss latency
system.l3.demand_avg_miss_latency::cpu.inst 196637.640449                       # average overall miss latency
system.l3.demand_avg_miss_latency::cpu.data 372311.253180                       # average overall miss latency
system.l3.demand_avg_miss_latency::total 372187.421788                       # average overall miss latency
system.l3.overall_avg_miss_latency::cpu.inst 196637.640449                       # average overall miss latency
system.l3.overall_avg_miss_latency::cpu.data 372311.253180                       # average overall miss latency
system.l3.overall_avg_miss_latency::total 372187.421788                       # average overall miss latency
system.l3.blocked_cycles::no_mshrs                  0                       # number of cycles access was blocked
system.l3.blocked_cycles::no_targets                0                       # number of cycles access was blocked
system.l3.blocked::no_mshrs                         0                       # number of cycles access was blocked
system.l3.blocked::no_targets                       0                       # number of cycles access was blocked
system.l3.avg_blocked_cycles::no_mshrs            nan                       # average number of cycles each access was blocked
system.l3.avg_blocked_cycles::no_targets          nan                       # average number of cycles each access was blocked
system.l3.writebacks::writebacks               482117                       # number of writebacks
system.l3.writebacks::total                    482117                       # number of writebacks
system.l3.CleanEvict_mshr_misses::writebacks        18555                       # number of CleanEvict MSHR misses
system.l3.CleanEvict_mshr_misses::total         18555                       # number of CleanEvict MSHR misses
system.l3.ReadExReq_mshr_misses::cpu.data        63339                       # number of ReadExReq MSHR misses
system.l3.ReadExReq_mshr_misses::total          63339                       # number of ReadExReq MSHR misses
system.l3.ReadSharedReq_mshr_misses::cpu.inst          356                       # number of ReadSharedReq MSHR misses
system.l3.ReadSharedReq_mshr_misses::cpu.data       441345                       # number of ReadSharedReq MSHR misses
system.l3.ReadSharedReq_mshr_misses::total       441701                       # number of ReadSharedReq MSHR misses
system.l3.demand_mshr_misses::cpu.inst            356                       # number of demand (read+write) MSHR misses
system.l3.demand_mshr_misses::cpu.data         504684                       # number of demand (read+write) MSHR misses
system.l3.demand_mshr_misses::total            505040                       # number of demand (read+write) MSHR misses
system.l3.overall_mshr_misses::cpu.inst           356                       # number of overall MSHR misses
system.l3.overall_mshr_misses::cpu.data        504684                       # number of overall MSHR misses
system.l3.overall_mshr_misses::total           505040                       # number of overall MSHR misses
system.l3.ReadExReq_mshr_miss_latency::cpu.data  18479636500                       # number of ReadExReq MSHR miss cycles
system.l3.ReadExReq_mshr_miss_latency::total  18479636500                       # number of ReadExReq MSHR miss cycles
system.l3.ReadSharedReq_mshr_miss_latency::cpu.inst     64307000                       # number of ReadSharedReq MSHR miss cycles
system.l3.ReadSharedReq_mshr_miss_latency::cpu.data 161344952000                       # number of ReadSharedReq MSHR miss cycles
system.l3.ReadSharedReq_mshr_miss_latency::total 161409259000                       # number of ReadSharedReq MSHR miss cycles
system.l3.demand_mshr_miss_latency::cpu.inst     64307000                       # number of demand (read+write) MSHR miss cycles
system.l3.demand_mshr_miss_latency::cpu.data 179824588500                       # number of demand (read+write) MSHR miss cycles
system.l3.demand_mshr_miss_latency::total 179888895500                       # number of demand (read+write) MSHR miss cycles
system.l3.overall_mshr_miss_latency::cpu.inst     64307000                       # number of overall MSHR miss cycles
system.l3.overall_mshr_miss_latency::cpu.data 179824588500                       # number of overall MSHR miss cycles
system.l3.overall_mshr_miss_latency::total 179888895500                       # number of overall MSHR miss cycles
system.l3.CleanEvict_mshr_miss_rate::writebacks          inf                       # mshr miss rate for CleanEvict accesses
system.l3.CleanEvict_mshr_miss_rate::total          inf                       # mshr miss rate for CleanEvict accesses
system.l3.ReadExReq_mshr_miss_rate::cpu.data     0.998487                       # mshr miss rate for ReadExReq accesses
system.l3.ReadExReq_mshr_miss_rate::total     0.998487                       # mshr miss rate for ReadExReq accesses
system.l3.ReadSharedReq_mshr_miss_rate::cpu.inst            1                       # mshr miss rate for ReadSharedReq accesses
system.l3.ReadSharedReq_mshr_miss_rate::cpu.data     0.970145                       # mshr miss rate for ReadSharedReq accesses
system.l3.ReadSharedReq_mshr_miss_rate::total     0.970168                       # mshr miss rate for ReadSharedReq accesses
system.l3.demand_mshr_miss_rate::cpu.inst            1                       # mshr miss rate for demand accesses
system.l3.demand_mshr_miss_rate::cpu.data     0.973613                       # mshr miss rate for demand accesses
system.l3.demand_mshr_miss_rate::total       0.973631                       # mshr miss rate for demand accesses
system.l3.overall_mshr_miss_rate::cpu.inst            1                       # mshr miss rate for overall accesses
system.l3.overall_mshr_miss_rate::cpu.data     0.973613                       # mshr miss rate for overall accesses
system.l3.overall_mshr_miss_rate::total      0.973631                       # mshr miss rate for overall accesses
system.l3.ReadExReq_avg_mshr_miss_latency::cpu.data 291757.629581                       # average ReadExReq mshr miss latency
system.l3.ReadExReq_avg_mshr_miss_latency::total 291757.629581                       # average ReadExReq mshr miss latency
system.l3.ReadSharedReq_avg_mshr_miss_latency::cpu.inst 180637.640449                       # average ReadSharedReq mshr miss latency
system.l3.ReadSharedReq_avg_mshr_miss_latency::cpu.data 365575.574664                       # average ReadSharedReq mshr miss latency
system.l3.ReadSharedReq_avg_mshr_miss_latency::total 365426.519297                       # average ReadSharedReq mshr miss latency
system.l3.demand_avg_mshr_miss_latency::cpu.inst 180637.640449                       # average overall mshr miss latency
system.l3.demand_avg_mshr_miss_latency::cpu.data 356311.253180                       # average overall mshr miss latency
system.l3.demand_avg_mshr_miss_latency::total 356187.421788                       # average overall mshr miss latency
system.l3.overall_avg_mshr_miss_latency::cpu.inst 180637.640449                       # average overall mshr miss latency
system.l3.overall_avg_mshr_miss_latency::cpu.data 356311.253180                       # average overall mshr miss latency
system.l3.overall_avg_mshr_miss_latency::total 356187.421788                       # average overall mshr miss latency
system.l3.replacements                         989611                       # number of replacements
system.membus.snoop_filter.tot_requests       1011584                       # Total number of requests made to the snoop filter.
system.membus.snoop_filter.hit_single_requests       506544                       # Number of requests hitting in the snoop filter with a single holder of the requested data.
system.membus.snoop_filter.hit_multi_requests            0                       # Number of requests hitting in the snoop filter with multiple (>1) holders of the requested data.
system.membus.snoop_filter.tot_snoops               0                       # Total number of snoops made to the snoop filter.
system.membus.snoop_filter.hit_single_snoops            0                       # Number of snoops hitting in the snoop filter with a single holder of the requested data.
system.membus.snoop_filter.hit_multi_snoops            0                       # Number of snoops hitting in the snoop filter with multiple (>1) holders of the requested data.
system.membus.pwrStateResidencyTicks::UNDEFINED 1181944383000                       # Cumulative time (in ticks) in various power states
system.membus.trans_dist::ReadResp             441701                       # Transaction distribution
system.membus.trans_dist::WritebackDirty       482117                       # Transaction distribution
system.membus.trans_dist::CleanEvict            18590                       # Transaction distribution
system.membus.trans_dist::ReadExReq             63339                       # Transaction distribution
system.membus.trans_dist::ReadExResp            63339                       # Transaction distribution
system.membus.trans_dist::ReadSharedReq        441701                       # Transaction distribution
system.membus.pkt_count_system.l3.mem_side::system.mem_ctrls.port      1510787                       # Packet count per connected master and slave (bytes)
system.membus.pkt_count_system.l3.mem_side::total      1510787                       # Packet count per connected master and slave (bytes)
system.membus.pkt_count::total                1510787                       # Packet count per connected master and slave (bytes)
system.membus.pkt_size_system.l3.mem_side::system.mem_ctrls.port     63178048                       # Cumulative packet size per connected master and slave (bytes)
system.membus.pkt_size_system.l3.mem_side::total     63178048                       # Cumulative packet size per connected master and slave (bytes)
system.membus.pkt_size::total                63178048                       # Cumulative packet size per connected master and slave (bytes)
system.membus.snoops                                0                       # Total snoops (count)
system.membus.snoopTraffic                          0                       # Total snoop traffic (bytes)
system.membus.snoop_fanout::samples            505040                       # Request fanout histogram
system.membus.snoop_fanout::mean                    0                       # Request fanout histogram
system.membus.snoop_fanout::stdev                   0                       # Request fanout histogram
system.membus.snoop_fanout::underflows              0      0.00%      0.00% # Request fanout histogram
system.membus.snoop_fanout::0                  505040    100.00%    100.00% # Request fanout histogram
system.membus.snoop_fanout::1                       0      0.00%    100.00% # Request fanout histogram
system.membus.snoop_fanout::overflows               0      0.00%    100.00% # Request fanout histogram
system.membus.snoop_fanout::min_value               0                       # Request fanout histogram
system.membus.snoop_fanout::max_value               0                       # Request fanout histogram
system.membus.snoop_fanout::total              505040                       # Request fanout histogram
system.membus.reqLayer2.occupancy          2940054500                       # Layer occupancy (ticks)
system.membus.reqLayer2.utilization               0.2                       # Layer utilization (%)
system.membus.respLayer1.occupancy         2525202500                       # Layer occupancy (ticks)
system.membus.respLayer1.utilization              0.2                       # Layer utilization (%)
system.tol2bus.snoop_filter.tot_requests      1377445                       # Total number of requests made to the snoop filter.
system.tol2bus.snoop_filter.hit_single_requests       694743                       # Number of requests hitting in the snoop filter with a single holder of the requested data.
system.tol2bus.snoop_filter.hit_multi_requests            0                       # Number of requests hitting in the snoop filter with multiple (>1) holders of the requested data.
system.tol2bus.snoop_filter.tot_snoops         507309                       # Total number of snoops made to the snoop filter.
system.tol2bus.snoop_filter.hit_single_snoops       507309                       # Number of snoops hitting in the snoop filter with a single holder of the requested data.
system.tol2bus.snoop_filter.hit_multi_snoops            0                       # Number of snoops hitting in the snoop filter with multiple (>1) holders of the requested data.
system.tol2bus.pwrStateResidencyTicks::UNDEFINED 1181944383000                       # Cumulative time (in ticks) in various power states
system.tol2bus.trans_dist::ReadResp            616258                       # Transaction distribution
system.tol2bus.trans_dist::WritebackDirty      1154619                       # Transaction distribution
system.tol2bus.trans_dist::WritebackClean           46                       # Transaction distribution
system.tol2bus.trans_dist::CleanEvict          551449                       # Transaction distribution
system.tol2bus.trans_dist::UpgradeReq           12863                       # Transaction distribution
system.tol2bus.trans_dist::UpgradeResp          12863                       # Transaction distribution
system.tol2bus.trans_dist::ReadExReq            66444                       # Transaction distribution
system.tol2bus.trans_dist::ReadExResp           66444                       # Transaction distribution
system.tol2bus.trans_dist::ReadCleanReq           356                       # Transaction distribution
system.tol2bus.trans_dist::ReadSharedReq       615902                       # Transaction distribution
system.tol2bus.pkt_count_system.cpu.icache.mem_side::system.l2.cpu_side          758                       # Packet count per connected master and slave (bytes)
system.tol2bus.pkt_count_system.cpu.dcache.mem_side::system.l2.cpu_side      2072252                       # Packet count per connected master and slave (bytes)
system.tol2bus.pkt_count::total               2073010                       # Packet count per connected master and slave (bytes)
system.tol2bus.pkt_size_system.cpu.icache.mem_side::system.l2.cpu_side        25728                       # Cumulative packet size per connected master and slave (bytes)
system.tol2bus.pkt_size_system.cpu.dcache.mem_side::system.l2.cpu_side     85707968                       # Cumulative packet size per connected master and slave (bytes)
system.tol2bus.pkt_size::total               85733696                       # Cumulative packet size per connected master and slave (bytes)
system.tol2bus.snoops                         1024234                       # Total snoops (count)
system.tol2bus.snoopTraffic                  31857792                       # Total snoop traffic (bytes)
system.tol2bus.snoop_fanout::samples          1719799                       # Request fanout histogram
system.tol2bus.snoop_fanout::mean            0.294982                       # Request fanout histogram
system.tol2bus.snoop_fanout::stdev           0.456035                       # Request fanout histogram
system.tol2bus.snoop_fanout::underflows             0      0.00%      0.00% # Request fanout histogram
system.tol2bus.snoop_fanout::0                1212490     70.50%     70.50% # Request fanout histogram
system.tol2bus.snoop_fanout::1                 507309     29.50%    100.00% # Request fanout histogram
system.tol2bus.snoop_fanout::2                      0      0.00%    100.00% # Request fanout histogram
system.tol2bus.snoop_fanout::3                      0      0.00%    100.00% # Request fanout histogram
system.tol2bus.snoop_fanout::4                      0      0.00%    100.00% # Request fanout histogram
system.tol2bus.snoop_fanout::overflows              0      0.00%    100.00% # Request fanout histogram
system.tol2bus.snoop_fanout::min_value              0                       # Request fanout histogram
system.tol2bus.snoop_fanout::max_value              1                       # Request fanout histogram
system.tol2bus.snoop_fanout::total            1719799                       # Request fanout histogram
system.tol2bus.reqLayer0.occupancy         1345609500                       # Layer occupancy (ticks)
system.tol2bus.reqLayer0.utilization              0.1                       # Layer utilization (%)
system.tol2bus.respLayer0.occupancy            534000                       # Layer occupancy (ticks)
system.tol2bus.respLayer0.utilization             0.0                       # Layer utilization (%)
system.tol2bus.respLayer1.occupancy        1029950500                       # Layer occupancy (ticks)
system.tol2bus.respLayer1.utilization             0.1                       # Layer utilization (%)
system.tol3bus.snoop_filter.tot_requests      1035116                       # Total number of requests made to the snoop filter.
system.tol3bus.snoop_filter.hit_single_requests       516398                       # Number of requests hitting in the snoop filter with a single holder of the requested data.
system.tol3bus.snoop_filter.hit_multi_requests            0                       # Number of requests hitting in the snoop filter with multiple (>1) holders of the requested data.
system.tol3bus.snoop_filter.tot_snoops         507459                       # Total number of snoops made to the snoop filter.
system.tol3bus.snoop_filter.hit_single_snoops       507459                       # Number of snoops hitting in the snoop filter with a single holder of the requested data.
system.tol3bus.snoop_filter.hit_multi_snoops            0                       # Number of snoops hitting in the snoop filter with multiple (>1) holders of the requested data.
system.tol3bus.pwrStateResidencyTicks::UNDEFINED 1181944383000                       # Cumulative time (in ticks) in various power states
system.tol3bus.trans_dist::ReadResp            455283                       # Transaction distribution
system.tol3bus.trans_dist::WritebackDirty       979895                       # Transaction distribution
system.tol3bus.trans_dist::CleanEvict          526114                       # Transaction distribution
system.tol3bus.trans_dist::ReadExReq            63435                       # Transaction distribution
system.tol3bus.trans_dist::ReadExResp           63435                       # Transaction distribution
system.tol3bus.trans_dist::ReadSharedReq       455283                       # Transaction distribution
system.tol3bus.pkt_count_system.l2.mem_side::system.l3.cpu_side      1553834                       # Packet count per connected master and slave (bytes)
system.tol3bus.pkt_size_system.l2.mem_side::system.l3.cpu_side     65055744                       # Cumulative packet size per connected master and slave (bytes)
system.tol3bus.snoops                          989611                       # Total snoops (count)
system.tol3bus.snoopTraffic                  30855488                       # Total snoop traffic (bytes)
system.tol3bus.snoop_fanout::samples          1508329                       # Request fanout histogram
system.tol3bus.snoop_fanout::mean            0.336438                       # Request fanout histogram
system.tol3bus.snoop_fanout::stdev           0.472491                       # Request fanout histogram
system.tol3bus.snoop_fanout::underflows             0      0.00%      0.00% # Request fanout histogram
system.tol3bus.snoop_fanout::0                1000870     66.36%     66.36% # Request fanout histogram
system.tol3bus.snoop_fanout::1                 507459     33.64%    100.00% # Request fanout histogram
system.tol3bus.snoop_fanout::overflows              0      0.00%    100.00% # Request fanout histogram
system.tol3bus.snoop_fanout::min_value              0                       # Request fanout histogram
system.tol3bus.snoop_fanout::max_value              1                       # Request fanout histogram
system.tol3bus.snoop_fanout::total            1508329                       # Request fanout histogram
system.tol3bus.reqLayer0.occupancy         1015336000                       # Layer occupancy (ticks)
system.tol3bus.reqLayer0.utilization              0.1                       # Layer utilization (%)
system.tol3bus.respLayer0.occupancy         778077000                       # Layer occupancy (ticks)
system.tol3bus.respLayer0.utilization             0.1                       # Layer utilization (%)

---------- End Simulation Statistics   ----------
